46
Frame 1
C 0.5142 -0.3433 -0.2823
C 1.8063 0.2228 0.2929
O 1.6352 0.5319 1.7013
C 1.2827 -0.5729 2.4959
C -0.0291 -1.2280 2.0246
C 0.0587 -1.5808 0.5197
C 2.2845 1.5260 -0.3315
H 2.4913 1.3711 -1.3954
H 1.4886 2.2840 -0.2454
O 3.4911 1.9682 0.2680
H 3.3142 1.9816 1.2200
O 2.3242 -1.5498 2.4599
N -0.3439 -2.3355 2.9222
H -1.2863 -2.6702 2.7343
H 0.2862 -3.1134 2.7253
O 0.9027 -2.7036 0.2857
H 1.6596 -2.6371 0.8900
H 0.6624 -0.6320 -1.3288
H -0.2682 0.4267 -0.2500
H 2.6100 -0.5176 0.1958
H -0.9375 -1.8826 0.1708
H -0.8035 -0.4593 2.1418
H 1.1647 -0.1933 3.5164
C 3.0915 -1.7748 3.6419
C 4.5448 -2.0015 3.2123
O 5.3429 -2.3921 4.3521
C 4.8989 -3.5400 5.0469
C 3.4794 -3.3440 5.5968
C 2.5228 -2.9710 4.4382
C 5.2375 -0.7547 2.6657
H 4.7258 -0.3940 1.7701
H 5.1822 0.0392 3.4302
O 6.5770 -1.0355 2.3042
H 6.9878 -1.4139 3.0949
O 4.8787 -4.6873 4.2065
N 3.0901 -4.5099 6.3827
H 2.2262 -4.3078 6.8815
H 2.8743 -5.2705 5.7413
O 2.2439 -4.0867 3.5984
H 3.0917 -4.5075 3.3782
H 3.0574 -0.8823 4.2851
H 4.5830 -2.7919 2.4515
H 1.5483 -2.6737 4.8417
H 3.5465 -2.4836 6.2744
H 5.6119 -3.6769 5.8669
H 5.7773 -4.8425 3.8834
